<?xml version="1.0" encoding="UTF-8"?>

<!-- generated on Tue Nov  4 23:20:04 2014 by SUMO netgenerate Version 0.21.0
<?xml version="1.0" encoding="UTF-8"?>

<configuration xmlns:xsi="http://www.w3.org/2001/XMLSchema-instance" xsi:noNamespaceSchemaLocation="http://sumo-sim.org/xsd/netgenerateConfiguration.xsd">

    <grid_network>
        <grid value="true"/>
        <grid.length value="300"/>
        <grid.x-number value="5"/>
        <grid.y-number value="4"/>
    </grid_network>

    <output>
        <output-file value="simulation_grid/network.xml"/>
    </output>

    <processing>
        <no-turnarounds value="true"/>
    </processing>

    <building_defaults>
        <default-junction-type value="traffic_light"/>
    </building_defaults>

</configuration>
-->

<net version="0.13" xmlns:xsi="http://www.w3.org/2001/XMLSchema-instance" xsi:noNamespaceSchemaLocation="http://sumo-sim.org/xsd/net_file.xsd">

    <location netOffset="0.00,0.00" convBoundary="0.00,0.00,1200.00,900.00" origBoundary="0.00,0.00,1200.00,900.00" projParameter="!"/>

    <edge id=":0/0_0" function="internal">
        <lane id=":0/0_0_0" index="0" speed="13.90" length="7.90" shape="-1.65,3.25 -1.34,1.11 -0.43,-0.42 1.11,-1.34 3.25,-1.65"/>
    </edge>
    <edge id=":0/0_1" function="internal">
        <lane id=":0/0_1_0" index="0" speed="13.90" length="2.58" shape="3.25,1.65 2.55,1.75 2.05,2.05 1.75,2.55 1.65,3.25"/>
    </edge>
    <edge id=":0/1_0" function="internal">
        <lane id=":0/1_0_0" index="0" speed="13.90" length="9.50" shape="-1.65,304.75 -1.65,295.25"/>
    </edge>
    <edge id=":0/1_1" function="internal">
        <lane id=":0/1_1_0" index="0" speed="13.90" length="7.14" shape="-1.65,304.75 -1.25,301.95 -0.05,299.95 1.65,298.93"/>
    </edge>
    <edge id=":0/1_6" function="internal">
        <lane id=":0/1_6_0" index="0" speed="13.90" length="3.18" shape="1.65,298.93 1.95,298.75 4.75,298.35"/>
    </edge>
    <edge id=":0/1_2" function="internal">
        <lane id=":0/1_2_0" index="0" speed="13.90" length="5.00" shape="4.75,301.65 3.39,301.84 2.42,302.42 1.84,303.39 1.65,304.75"/>
    </edge>
    <edge id=":0/1_3" function="internal">
        <lane id=":0/1_3_0" index="0" speed="13.90" length="3.18" shape="4.75,301.65 1.95,301.25 1.65,301.07"/>
    </edge>
    <edge id=":0/1_7" function="internal">
        <lane id=":0/1_7_0" index="0" speed="13.90" length="7.14" shape="1.65,301.07 -0.05,300.05 -1.25,298.05 -1.65,295.25"/>
    </edge>
    <edge id=":0/1_4" function="internal">
        <lane id=":0/1_4_0" index="0" speed="13.90" length="5.00" shape="1.65,295.25 1.84,296.61 2.43,297.58 3.39,298.16 4.75,298.35"/>
    </edge>
    <edge id=":0/1_5" function="internal">
        <lane id=":0/1_5_0" index="0" speed="13.90" length="9.50" shape="1.65,295.25 1.65,304.75"/>
    </edge>
    <edge id=":0/2_0" function="internal">
        <lane id=":0/2_0_0" index="0" speed="13.90" length="9.50" shape="-1.65,604.75 -1.65,595.25"/>
    </edge>
    <edge id=":0/2_1" function="internal">
        <lane id=":0/2_1_0" index="0" speed="13.90" length="7.14" shape="-1.65,604.75 -1.25,601.95 -0.05,599.95 1.65,598.93"/>
    </edge>
    <edge id=":0/2_6" function="internal">
        <lane id=":0/2_6_0" index="0" speed="13.90" length="3.18" shape="1.65,598.93 1.95,598.75 4.75,598.35"/>
    </edge>
    <edge id=":0/2_2" function="internal">
        <lane id=":0/2_2_0" index="0" speed="13.90" length="5.00" shape="4.75,601.65 3.39,601.84 2.42,602.42 1.84,603.39 1.65,604.75"/>
    </edge>
    <edge id=":0/2_3" function="internal">
        <lane id=":0/2_3_0" index="0" speed="13.90" length="3.18" shape="4.75,601.65 1.95,601.25 1.65,601.07"/>
    </edge>
    <edge id=":0/2_7" function="internal">
        <lane id=":0/2_7_0" index="0" speed="13.90" length="7.14" shape="1.65,601.07 -0.05,600.05 -1.25,598.05 -1.65,595.25"/>
    </edge>
    <edge id=":0/2_4" function="internal">
        <lane id=":0/2_4_0" index="0" speed="13.90" length="5.00" shape="1.65,595.25 1.84,596.61 2.43,597.58 3.39,598.16 4.75,598.35"/>
    </edge>
    <edge id=":0/2_5" function="internal">
        <lane id=":0/2_5_0" index="0" speed="13.90" length="9.50" shape="1.65,595.25 1.65,604.75"/>
    </edge>
    <edge id=":0/3_0" function="internal">
        <lane id=":0/3_0_0" index="0" speed="13.90" length="7.90" shape="3.25,901.65 1.11,901.34 -0.42,900.42 -1.34,898.89 -1.65,896.75"/>
    </edge>
    <edge id=":0/3_1" function="internal">
        <lane id=":0/3_1_0" index="0" speed="13.90" length="2.58" shape="1.65,896.75 1.75,897.45 2.05,897.95 2.55,898.25 3.25,898.35"/>
    </edge>
    <edge id=":1/0_0" function="internal">
        <lane id=":1/0_0_0" index="0" speed="13.90" length="5.00" shape="298.35,4.75 298.16,3.39 297.58,2.42 296.61,1.84 295.25,1.65"/>
    </edge>
    <edge id=":1/0_1" function="internal">
        <lane id=":1/0_1_0" index="0" speed="13.90" length="3.18" shape="298.35,4.75 298.75,1.95 298.93,1.65"/>
    </edge>
    <edge id=":1/0_6" function="internal">
        <lane id=":1/0_6_0" index="0" speed="13.90" length="7.14" shape="298.93,1.65 299.95,-0.05 301.95,-1.25 304.75,-1.65"/>
    </edge>
    <edge id=":1/0_2" function="internal">
        <lane id=":1/0_2_0" index="0" speed="13.90" length="5.00" shape="304.75,1.65 303.39,1.84 302.42,2.43 301.84,3.39 301.65,4.75"/>
    </edge>
    <edge id=":1/0_3" function="internal">
        <lane id=":1/0_3_0" index="0" speed="13.90" length="9.50" shape="304.75,1.65 295.25,1.65"/>
    </edge>
    <edge id=":1/0_4" function="internal">
        <lane id=":1/0_4_0" index="0" speed="13.90" length="9.50" shape="295.25,-1.65 304.75,-1.65"/>
    </edge>
    <edge id=":1/0_5" function="internal">
        <lane id=":1/0_5_0" index="0" speed="13.90" length="7.14" shape="295.25,-1.65 298.05,-1.25 300.05,-0.05 301.07,1.65"/>
    </edge>
    <edge id=":1/0_7" function="internal">
        <lane id=":1/0_7_0" index="0" speed="13.90" length="3.18" shape="301.07,1.65 301.25,1.95 301.65,4.75"/>
    </edge>
    <edge id=":1/1_0" function="internal">
        <lane id=":1/1_0_0" index="0" speed="13.90" length="5.00" shape="298.35,304.75 298.16,303.39 297.58,302.42 296.61,301.84 295.25,301.65"/>
    </edge>
    <edge id=":1/1_1" function="internal">
        <lane id=":1/1_1_0" index="0" speed="13.90" length="9.50" shape="298.35,304.75 298.35,295.25"/>
    </edge>
    <edge id=":1/1_2" function="internal">
        <lane id=":1/1_2_0" index="0" speed="13.90" length="3.18" shape="298.35,304.75 298.75,301.95 298.93,301.65"/>
    </edge>
    <edge id=":1/1_12" function="internal">
        <lane id=":1/1_12_0" index="0" speed="13.90" length="7.14" shape="298.93,301.65 299.95,299.95 301.95,298.75 304.75,298.35"/>
    </edge>
    <edge id=":1/1_3" function="internal">
        <lane id=":1/1_3_0" index="0" speed="13.90" length="5.00" shape="304.75,301.65 303.39,301.84 302.42,302.42 301.84,303.39 301.65,304.75"/>
    </edge>
    <edge id=":1/1_4" function="internal">
        <lane id=":1/1_4_0" index="0" speed="13.90" length="9.50" shape="304.75,301.65 295.25,301.65"/>
    </edge>
    <edge id=":1/1_5" function="internal">
        <lane id=":1/1_5_0" index="0" speed="13.90" length="3.18" shape="304.75,301.65 301.95,301.25 301.65,301.07"/>
    </edge>
    <edge id=":1/1_13" function="internal">
        <lane id=":1/1_13_0" index="0" speed="13.90" length="7.14" shape="301.65,301.07 299.95,300.05 298.75,298.05 298.35,295.25"/>
    </edge>
    <edge id=":1/1_6" function="internal">
        <lane id=":1/1_6_0" index="0" speed="13.90" length="5.00" shape="301.65,295.25 301.84,296.61 302.42,297.58 303.39,298.16 304.75,298.35"/>
    </edge>
    <edge id=":1/1_7" function="internal">
        <lane id=":1/1_7_0" index="0" speed="13.90" length="9.50" shape="301.65,295.25 301.65,304.75"/>
    </edge>
    <edge id=":1/1_8" function="internal">
        <lane id=":1/1_8_0" index="0" speed="13.90" length="3.18" shape="301.65,295.25 301.25,298.05 301.07,298.35"/>
    </edge>
    <edge id=":1/1_14" function="internal">
        <lane id=":1/1_14_0" index="0" speed="13.90" length="7.14" shape="301.07,298.35 300.05,300.05 298.05,301.25 295.25,301.65"/>
    </edge>
    <edge id=":1/1_9" function="internal">
        <lane id=":1/1_9_0" index="0" speed="13.90" length="5.00" shape="295.25,298.35 296.61,298.16 297.58,297.58 298.16,296.61 298.35,295.25"/>
    </edge>
    <edge id=":1/1_10" function="internal">
        <lane id=":1/1_10_0" index="0" speed="13.90" length="9.50" shape="295.25,298.35 304.75,298.35"/>
    </edge>
    <edge id=":1/1_11" function="internal">
        <lane id=":1/1_11_0" index="0" speed="13.90" length="3.18" shape="295.25,298.35 298.05,298.75 298.35,298.93"/>
    </edge>
    <edge id=":1/1_15" function="internal">
        <lane id=":1/1_15_0" index="0" speed="13.90" length="7.14" shape="298.35,298.93 300.05,299.95 301.25,301.95 301.65,304.75"/>
    </edge>
    <edge id=":1/2_0" function="internal">
        <lane id=":1/2_0_0" index="0" speed="13.90" length="5.00" shape="298.35,604.75 298.16,603.39 297.58,602.42 296.61,601.84 295.25,601.65"/>
    </edge>
    <edge id=":1/2_1" function="internal">
        <lane id=":1/2_1_0" index="0" speed="13.90" length="9.50" shape="298.35,604.75 298.35,595.25"/>
    </edge>
    <edge id=":1/2_2" function="internal">
        <lane id=":1/2_2_0" index="0" speed="13.90" length="3.18" shape="298.35,604.75 298.75,601.95 298.93,601.65"/>
    </edge>
    <edge id=":1/2_12" function="internal">
        <lane id=":1/2_12_0" index="0" speed="13.90" length="7.14" shape="298.93,601.65 299.95,599.95 301.95,598.75 304.75,598.35"/>
    </edge>
    <edge id=":1/2_3" function="internal">
        <lane id=":1/2_3_0" index="0" speed="13.90" length="5.00" shape="304.75,601.65 303.39,601.84 302.42,602.42 301.84,603.39 301.65,604.75"/>
    </edge>
    <edge id=":1/2_4" function="internal">
        <lane id=":1/2_4_0" index="0" speed="13.90" length="9.50" shape="304.75,601.65 295.25,601.65"/>
    </edge>
    <edge id=":1/2_5" function="internal">
        <lane id=":1/2_5_0" index="0" speed="13.90" length="3.18" shape="304.75,601.65 301.95,601.25 301.65,601.07"/>
    </edge>
    <edge id=":1/2_13" function="internal">
        <lane id=":1/2_13_0" index="0" speed="13.90" length="7.14" shape="301.65,601.07 299.95,600.05 298.75,598.05 298.35,595.25"/>
    </edge>
    <edge id=":1/2_6" function="internal">
        <lane id=":1/2_6_0" index="0" speed="13.90" length="5.00" shape="301.65,595.25 301.84,596.61 302.42,597.58 303.39,598.16 304.75,598.35"/>
    </edge>
    <edge id=":1/2_7" function="internal">
        <lane id=":1/2_7_0" index="0" speed="13.90" length="9.50" shape="301.65,595.25 301.65,604.75"/>
    </edge>
    <edge id=":1/2_8" function="internal">
        <lane id=":1/2_8_0" index="0" speed="13.90" length="3.18" shape="301.65,595.25 301.25,598.05 301.07,598.35"/>
    </edge>
    <edge id=":1/2_14" function="internal">
        <lane id=":1/2_14_0" index="0" speed="13.90" length="7.14" shape="301.07,598.35 300.05,600.05 298.05,601.25 295.25,601.65"/>
    </edge>
    <edge id=":1/2_9" function="internal">
        <lane id=":1/2_9_0" index="0" speed="13.90" length="5.00" shape="295.25,598.35 296.61,598.16 297.58,597.58 298.16,596.61 298.35,595.25"/>
    </edge>
    <edge id=":1/2_10" function="internal">
        <lane id=":1/2_10_0" index="0" speed="13.90" length="9.50" shape="295.25,598.35 304.75,598.35"/>
    </edge>
    <edge id=":1/2_11" function="internal">
        <lane id=":1/2_11_0" index="0" speed="13.90" length="3.18" shape="295.25,598.35 298.05,598.75 298.35,598.93"/>
    </edge>
    <edge id=":1/2_15" function="internal">
        <lane id=":1/2_15_0" index="0" speed="13.90" length="7.14" shape="298.35,598.93 300.05,599.95 301.25,601.95 301.65,604.75"/>
    </edge>
    <edge id=":1/3_0" function="internal">
        <lane id=":1/3_0_0" index="0" speed="13.90" length="9.50" shape="304.75,901.65 295.25,901.65"/>
    </edge>
    <edge id=":1/3_1" function="internal">
        <lane id=":1/3_1_0" index="0" speed="13.90" length="7.14" shape="304.75,901.65 301.95,901.25 299.95,900.05 298.93,898.35"/>
    </edge>
    <edge id=":1/3_6" function="internal">
        <lane id=":1/3_6_0" index="0" speed="13.90" length="3.18" shape="298.93,898.35 298.75,898.05 298.35,895.25"/>
    </edge>
    <edge id=":1/3_2" function="internal">
        <lane id=":1/3_2_0" index="0" speed="13.90" length="5.00" shape="301.65,895.25 301.84,896.61 302.42,897.57 303.39,898.16 304.75,898.35"/>
    </edge>
    <edge id=":1/3_3" function="internal">
        <lane id=":1/3_3_0" index="0" speed="13.90" length="3.18" shape="301.65,895.25 301.25,898.05 301.07,898.35"/>
    </edge>
    <edge id=":1/3_7" function="internal">
        <lane id=":1/3_7_0" index="0" speed="13.90" length="7.14" shape="301.07,898.35 300.05,900.05 298.05,901.25 295.25,901.65"/>
    </edge>
    <edge id=":1/3_4" function="internal">
        <lane id=":1/3_4_0" index="0" speed="13.90" length="5.00" shape="295.25,898.35 296.61,898.16 297.58,897.58 298.16,896.61 298.35,895.25"/>
    </edge>
    <edge id=":1/3_5" function="internal">
        <lane id=":1/3_5_0" index="0" speed="13.90" length="9.50" shape="295.25,898.35 304.75,898.35"/>
    </edge>
    <edge id=":2/0_0" function="internal">
        <lane id=":2/0_0_0" index="0" speed="13.90" length="5.00" shape="598.35,4.75 598.16,3.39 597.58,2.42 596.61,1.84 595.25,1.65"/>
    </edge>
    <edge id=":2/0_1" function="internal">
        <lane id=":2/0_1_0" index="0" speed="13.90" length="3.18" shape="598.35,4.75 598.75,1.95 598.93,1.65"/>
    </edge>
    <edge id=":2/0_6" function="internal">
        <lane id=":2/0_6_0" index="0" speed="13.90" length="7.14" shape="598.93,1.65 599.95,-0.05 601.95,-1.25 604.75,-1.65"/>
    </edge>
    <edge id=":2/0_2" function="internal">
        <lane id=":2/0_2_0" index="0" speed="13.90" length="5.00" shape="604.75,1.65 603.39,1.84 602.42,2.43 601.84,3.39 601.65,4.75"/>
    </edge>
    <edge id=":2/0_3" function="internal">
        <lane id=":2/0_3_0" index="0" speed="13.90" length="9.50" shape="604.75,1.65 595.25,1.65"/>
    </edge>
    <edge id=":2/0_4" function="internal">
        <lane id=":2/0_4_0" index="0" speed="13.90" length="9.50" shape="595.25,-1.65 604.75,-1.65"/>
    </edge>
    <edge id=":2/0_5" function="internal">
        <lane id=":2/0_5_0" index="0" speed="13.90" length="7.14" shape="595.25,-1.65 598.05,-1.25 600.05,-0.05 601.07,1.65"/>
    </edge>
    <edge id=":2/0_7" function="internal">
        <lane id=":2/0_7_0" index="0" speed="13.90" length="3.18" shape="601.07,1.65 601.25,1.95 601.65,4.75"/>
    </edge>
    <edge id=":2/1_0" function="internal">
        <lane id=":2/1_0_0" index="0" speed="13.90" length="5.00" shape="598.35,304.75 598.16,303.39 597.58,302.42 596.61,301.84 595.25,301.65"/>
    </edge>
    <edge id=":2/1_1" function="internal">
        <lane id=":2/1_1_0" index="0" speed="13.90" length="9.50" shape="598.35,304.75 598.35,295.25"/>
    </edge>
    <edge id=":2/1_2" function="internal">
        <lane id=":2/1_2_0" index="0" speed="13.90" length="3.18" shape="598.35,304.75 598.75,301.95 598.93,301.65"/>
    </edge>
    <edge id=":2/1_12" function="internal">
        <lane id=":2/1_12_0" index="0" speed="13.90" length="7.14" shape="598.93,301.65 599.95,299.95 601.95,298.75 604.75,298.35"/>
    </edge>
    <edge id=":2/1_3" function="internal">
        <lane id=":2/1_3_0" index="0" speed="13.90" length="5.00" shape="604.75,301.65 603.39,301.84 602.42,302.42 601.84,303.39 601.65,304.75"/>
    </edge>
    <edge id=":2/1_4" function="internal">
        <lane id=":2/1_4_0" index="0" speed="13.90" length="9.50" shape="604.75,301.65 595.25,301.65"/>
    </edge>
    <edge id=":2/1_5" function="internal">
        <lane id=":2/1_5_0" index="0" speed="13.90" length="3.18" shape="604.75,301.65 601.95,301.25 601.65,301.07"/>
    </edge>
    <edge id=":2/1_13" function="internal">
        <lane id=":2/1_13_0" index="0" speed="13.90" length="7.14" shape="601.65,301.07 599.95,300.05 598.75,298.05 598.35,295.25"/>
    </edge>
    <edge id=":2/1_6" function="internal">
        <lane id=":2/1_6_0" index="0" speed="13.90" length="5.00" shape="601.65,295.25 601.84,296.61 602.42,297.58 603.39,298.16 604.75,298.35"/>
    </edge>
    <edge id=":2/1_7" function="internal">
        <lane id=":2/1_7_0" index="0" speed="13.90" length="9.50" shape="601.65,295.25 601.65,304.75"/>
    </edge>
    <edge id=":2/1_8" function="internal">
        <lane id=":2/1_8_0" index="0" speed="13.90" length="3.18" shape="601.65,295.25 601.25,298.05 601.07,298.35"/>
    </edge>
    <edge id=":2/1_14" function="internal">
        <lane id=":2/1_14_0" index="0" speed="13.90" length="7.14" shape="601.07,298.35 600.05,300.05 598.05,301.25 595.25,301.65"/>
    </edge>
    <edge id=":2/1_9" function="internal">
        <lane id=":2/1_9_0" index="0" speed="13.90" length="5.00" shape="595.25,298.35 596.61,298.16 597.58,297.58 598.16,296.61 598.35,295.25"/>
    </edge>
    <edge id=":2/1_10" function="internal">
        <lane id=":2/1_10_0" index="0" speed="13.90" length="9.50" shape="595.25,298.35 604.75,298.35"/>
    </edge>
    <edge id=":2/1_11" function="internal">
        <lane id=":2/1_11_0" index="0" speed="13.90" length="3.18" shape="595.25,298.35 598.05,298.75 598.35,298.93"/>
    </edge>
    <edge id=":2/1_15" function="internal">
        <lane id=":2/1_15_0" index="0" speed="13.90" length="7.14" shape="598.35,298.93 600.05,299.95 601.25,301.95 601.65,304.75"/>
    </edge>
    <edge id=":2/2_0" function="internal">
        <lane id=":2/2_0_0" index="0" speed="13.90" length="5.00" shape="598.35,604.75 598.16,603.39 597.58,602.42 596.61,601.84 595.25,601.65"/>
    </edge>
    <edge id=":2/2_1" function="internal">
        <lane id=":2/2_1_0" index="0" speed="13.90" length="9.50" shape="598.35,604.75 598.35,595.25"/>
    </edge>
    <edge id=":2/2_2" function="internal">
        <lane id=":2/2_2_0" index="0" speed="13.90" length="3.18" shape="598.35,604.75 598.75,601.95 598.93,601.65"/>
    </edge>
    <edge id=":2/2_12" function="internal">
        <lane id=":2/2_12_0" index="0" speed="13.90" length="7.14" shape="598.93,601.65 599.95,599.95 601.95,598.75 604.75,598.35"/>
    </edge>
    <edge id=":2/2_3" function="internal">
        <lane id=":2/2_3_0" index="0" speed="13.90" length="5.00" shape="604.75,601.65 603.39,601.84 602.42,602.42 601.84,603.39 601.65,604.75"/>
    </edge>
    <edge id=":2/2_4" function="internal">
        <lane id=":2/2_4_0" index="0" speed="13.90" length="9.50" shape="604.75,601.65 595.25,601.65"/>
    </edge>
    <edge id=":2/2_5" function="internal">
        <lane id=":2/2_5_0" index="0" speed="13.90" length="3.18" shape="604.75,601.65 601.95,601.25 601.65,601.07"/>
    </edge>
    <edge id=":2/2_13" function="internal">
        <lane id=":2/2_13_0" index="0" speed="13.90" length="7.14" shape="601.65,601.07 599.95,600.05 598.75,598.05 598.35,595.25"/>
    </edge>
    <edge id=":2/2_6" function="internal">
        <lane id=":2/2_6_0" index="0" speed="13.90" length="5.00" shape="601.65,595.25 601.84,596.61 602.42,597.58 603.39,598.16 604.75,598.35"/>
    </edge>
    <edge id=":2/2_7" function="internal">
        <lane id=":2/2_7_0" index="0" speed="13.90" length="9.50" shape="601.65,595.25 601.65,604.75"/>
    </edge>
    <edge id=":2/2_8" function="internal">
        <lane id=":2/2_8_0" index="0" speed="13.90" length="3.18" shape="601.65,595.25 601.25,598.05 601.07,598.35"/>
    </edge>
    <edge id=":2/2_14" function="internal">
        <lane id=":2/2_14_0" index="0" speed="13.90" length="7.14" shape="601.07,598.35 600.05,600.05 598.05,601.25 595.25,601.65"/>
    </edge>
    <edge id=":2/2_9" function="internal">
        <lane id=":2/2_9_0" index="0" speed="13.90" length="5.00" shape="595.25,598.35 596.61,598.16 597.58,597.58 598.16,596.61 598.35,595.25"/>
    </edge>
    <edge id=":2/2_10" function="internal">
        <lane id=":2/2_10_0" index="0" speed="13.90" length="9.50" shape="595.25,598.35 604.75,598.35"/>
    </edge>
    <edge id=":2/2_11" function="internal">
        <lane id=":2/2_11_0" index="0" speed="13.90" length="3.18" shape="595.25,598.35 598.05,598.75 598.35,598.93"/>
    </edge>
    <edge id=":2/2_15" function="internal">
        <lane id=":2/2_15_0" index="0" speed="13.90" length="7.14" shape="598.35,598.93 600.05,599.95 601.25,601.95 601.65,604.75"/>
    </edge>
    <edge id=":2/3_0" function="internal">
        <lane id=":2/3_0_0" index="0" speed="13.90" length="9.50" shape="604.75,901.65 595.25,901.65"/>
    </edge>
    <edge id=":2/3_1" function="internal">
        <lane id=":2/3_1_0" index="0" speed="13.90" length="7.14" shape="604.75,901.65 601.95,901.25 599.95,900.05 598.93,898.35"/>
    </edge>
    <edge id=":2/3_6" function="internal">
        <lane id=":2/3_6_0" index="0" speed="13.90" length="3.18" shape="598.93,898.35 598.75,898.05 598.35,895.25"/>
    </edge>
    <edge id=":2/3_2" function="internal">
        <lane id=":2/3_2_0" index="0" speed="13.90" length="5.00" shape="601.65,895.25 601.84,896.61 602.42,897.57 603.39,898.16 604.75,898.35"/>
    </edge>
    <edge id=":2/3_3" function="internal">
        <lane id=":2/3_3_0" index="0" speed="13.90" length="3.18" shape="601.65,895.25 601.25,898.05 601.07,898.35"/>
    </edge>
    <edge id=":2/3_7" function="internal">
        <lane id=":2/3_7_0" index="0" speed="13.90" length="7.14" shape="601.07,898.35 600.05,900.05 598.05,901.25 595.25,901.65"/>
    </edge>
    <edge id=":2/3_4" function="internal">
        <lane id=":2/3_4_0" index="0" speed="13.90" length="5.00" shape="595.25,898.35 596.61,898.16 597.58,897.58 598.16,896.61 598.35,895.25"/>
    </edge>
    <edge id=":2/3_5" function="internal">
        <lane id=":2/3_5_0" index="0" speed="13.90" length="9.50" shape="595.25,898.35 604.75,898.35"/>
    </edge>
    <edge id=":3/0_0" function="internal">
        <lane id=":3/0_0_0" index="0" speed="13.90" length="5.00" shape="898.35,4.75 898.16,3.39 897.58,2.42 896.61,1.84 895.25,1.65"/>
    </edge>
    <edge id=":3/0_1" function="internal">
        <lane id=":3/0_1_0" index="0" speed="13.90" length="3.18" shape="898.35,4.75 898.75,1.95 898.93,1.65"/>
    </edge>
    <edge id=":3/0_6" function="internal">
        <lane id=":3/0_6_0" index="0" speed="13.90" length="7.14" shape="898.93,1.65 899.95,-0.05 901.95,-1.25 904.75,-1.65"/>
    </edge>
    <edge id=":3/0_2" function="internal">
        <lane id=":3/0_2_0" index="0" speed="13.90" length="5.00" shape="904.75,1.65 903.39,1.84 902.43,2.43 901.84,3.39 901.65,4.75"/>
    </edge>
    <edge id=":3/0_3" function="internal">
        <lane id=":3/0_3_0" index="0" speed="13.90" length="9.50" shape="904.75,1.65 895.25,1.65"/>
    </edge>
    <edge id=":3/0_4" function="internal">
        <lane id=":3/0_4_0" index="0" speed="13.90" length="9.50" shape="895.25,-1.65 904.75,-1.65"/>
    </edge>
    <edge id=":3/0_5" function="internal">
        <lane id=":3/0_5_0" index="0" speed="13.90" length="7.14" shape="895.25,-1.65 898.05,-1.25 900.05,-0.05 901.07,1.65"/>
    </edge>
    <edge id=":3/0_7" function="internal">
        <lane id=":3/0_7_0" index="0" speed="13.90" length="3.18" shape="901.07,1.65 901.25,1.95 901.65,4.75"/>
    </edge>
    <edge id=":3/1_0" function="internal">
        <lane id=":3/1_0_0" index="0" speed="13.90" length="5.00" shape="898.35,304.75 898.16,303.39 897.58,302.42 896.61,301.84 895.25,301.65"/>
    </edge>
    <edge id=":3/1_1" function="internal">
        <lane id=":3/1_1_0" index="0" speed="13.90" length="9.50" shape="898.35,304.75 898.35,295.25"/>
    </edge>
    <edge id=":3/1_2" function="internal">
        <lane id=":3/1_2_0" index="0" speed="13.90" length="3.18" shape="898.35,304.75 898.75,301.95 898.93,301.65"/>
    </edge>
    <edge id=":3/1_12" function="internal">
        <lane id=":3/1_12_0" index="0" speed="13.90" length="7.14" shape="898.93,301.65 899.95,299.95 901.95,298.75 904.75,298.35"/>
    </edge>
    <edge id=":3/1_3" function="internal">
        <lane id=":3/1_3_0" index="0" speed="13.90" length="5.00" shape="904.75,301.65 903.39,301.84 902.43,302.42 901.84,303.39 901.65,304.75"/>
    </edge>
    <edge id=":3/1_4" function="internal">
        <lane id=":3/1_4_0" index="0" speed="13.90" length="9.50" shape="904.75,301.65 895.25,301.65"/>
    </edge>
    <edge id=":3/1_5" function="internal">
        <lane id=":3/1_5_0" index="0" speed="13.90" length="3.18" shape="904.75,301.65 901.95,301.25 901.65,301.07"/>
    </edge>
    <edge id=":3/1_13" function="internal">
        <lane id=":3/1_13_0" index="0" speed="13.90" length="7.14" shape="901.65,301.07 899.95,300.05 898.75,298.05 898.35,295.25"/>
    </edge>
    <edge id=":3/1_6" function="internal">
        <lane id=":3/1_6_0" index="0" speed="13.90" length="5.00" shape="901.65,295.25 901.84,296.61 902.42,297.58 903.39,298.16 904.75,298.35"/>
    </edge>
    <edge id=":3/1_7" function="internal">
        <lane id=":3/1_7_0" index="0" speed="13.90" length="9.50" shape="901.65,295.25 901.65,304.75"/>
    </edge>
    <edge id=":3/1_8" function="internal">
        <lane id=":3/1_8_0" index="0" speed="13.90" length="3.18" shape="901.65,295.25 901.25,298.05 901.07,298.35"/>
    </edge>
    <edge id=":3/1_14" function="internal">
        <lane id=":3/1_14_0" index="0" speed="13.90" length="7.14" shape="901.07,298.35 900.05,300.05 898.05,301.25 895.25,301.65"/>
    </edge>
    <edge id=":3/1_9" function="internal">
        <lane id=":3/1_9_0" index="0" speed="13.90" length="5.00" shape="895.25,298.35 896.61,298.16 897.57,297.58 898.16,296.61 898.35,295.25"/>
    </edge>
    <edge id=":3/1_10" function="internal">
        <lane id=":3/1_10_0" index="0" speed="13.90" length="9.50" shape="895.25,298.35 904.75,298.35"/>
    </edge>
    <edge id=":3/1_11" function="internal">
        <lane id=":3/1_11_0" index="0" speed="13.90" length="3.18" shape="895.25,298.35 898.05,298.75 898.35,298.93"/>
    </edge>
    <edge id=":3/1_15" function="internal">
        <lane id=":3/1_15_0" index="0" speed="13.90" length="7.14" shape="898.35,298.93 900.05,299.95 901.25,301.95 901.65,304.75"/>
    </edge>
    <edge id=":3/2_0" function="internal">
        <lane id=":3/2_0_0" index="0" speed="13.90" length="5.00" shape="898.35,604.75 898.16,603.39 897.58,602.42 896.61,601.84 895.25,601.65"/>
    </edge>
    <edge id=":3/2_1" function="internal">
        <lane id=":3/2_1_0" index="0" speed="13.90" length="9.50" shape="898.35,604.75 898.35,595.25"/>
    </edge>
    <edge id=":3/2_2" function="internal">
        <lane id=":3/2_2_0" index="0" speed="13.90" length="3.18" shape="898.35,604.75 898.75,601.95 898.93,601.65"/>
    </edge>
    <edge id=":3/2_12" function="internal">
        <lane id=":3/2_12_0" index="0" speed="13.90" length="7.14" shape="898.93,601.65 899.95,599.95 901.95,598.75 904.75,598.35"/>
    </edge>
    <edge id=":3/2_3" function="internal">
        <lane id=":3/2_3_0" index="0" speed="13.90" length="5.00" shape="904.75,601.65 903.39,601.84 902.43,602.42 901.84,603.39 901.65,604.75"/>
    </edge>
    <edge id=":3/2_4" function="internal">
        <lane id=":3/2_4_0" index="0" speed="13.90" length="9.50" shape="904.75,601.65 895.25,601.65"/>
    </edge>
    <edge id=":3/2_5" function="internal">
        <lane id=":3/2_5_0" index="0" speed="13.90" length="3.18" shape="904.75,601.65 901.95,601.25 901.65,601.07"/>
    </edge>
    <edge id=":3/2_13" function="internal">
        <lane id=":3/2_13_0" index="0" speed="13.90" length="7.14" shape="901.65,601.07 899.95,600.05 898.75,598.05 898.35,595.25"/>
    </edge>
    <edge id=":3/2_6" function="internal">
        <lane id=":3/2_6_0" index="0" speed="13.90" length="5.00" shape="901.65,595.25 901.84,596.61 902.42,597.58 903.39,598.16 904.75,598.35"/>
    </edge>
    <edge id=":3/2_7" function="internal">
        <lane id=":3/2_7_0" index="0" speed="13.90" length="9.50" shape="901.65,595.25 901.65,604.75"/>
    </edge>
    <edge id=":3/2_8" function="internal">
        <lane id=":3/2_8_0" index="0" speed="13.90" length="3.18" shape="901.65,595.25 901.25,598.05 901.07,598.35"/>
    </edge>
    <edge id=":3/2_14" function="internal">
        <lane id=":3/2_14_0" index="0" speed="13.90" length="7.14" shape="901.07,598.35 900.05,600.05 898.05,601.25 895.25,601.65"/>
    </edge>
    <edge id=":3/2_9" function="internal">
        <lane id=":3/2_9_0" index="0" speed="13.90" length="5.00" shape="895.25,598.35 896.61,598.16 897.57,597.58 898.16,596.61 898.35,595.25"/>
    </edge>
    <edge id=":3/2_10" function="internal">
        <lane id=":3/2_10_0" index="0" speed="13.90" length="9.50" shape="895.25,598.35 904.75,598.35"/>
    </edge>
    <edge id=":3/2_11" function="internal">
        <lane id=":3/2_11_0" index="0" speed="13.90" length="3.18" shape="895.25,598.35 898.05,598.75 898.35,598.93"/>
    </edge>
    <edge id=":3/2_15" function="internal">
        <lane id=":3/2_15_0" index="0" speed="13.90" length="7.14" shape="898.35,598.93 900.05,599.95 901.25,601.95 901.65,604.75"/>
    </edge>
    <edge id=":3/3_0" function="internal">
        <lane id=":3/3_0_0" index="0" speed="13.90" length="9.50" shape="904.75,901.65 895.25,901.65"/>
    </edge>
    <edge id=":3/3_1" function="internal">
        <lane id=":3/3_1_0" index="0" speed="13.90" length="7.14" shape="904.75,901.65 901.95,901.25 899.95,900.05 898.93,898.35"/>
    </edge>
    <edge id=":3/3_6" function="internal">
        <lane id=":3/3_6_0" index="0" speed="13.90" length="3.18" shape="898.93,898.35 898.75,898.05 898.35,895.25"/>
    </edge>
    <edge id=":3/3_2" function="internal">
        <lane id=":3/3_2_0" index="0" speed="13.90" length="5.00" shape="901.65,895.25 901.84,896.61 902.42,897.57 903.39,898.16 904.75,898.35"/>
    </edge>
    <edge id=":3/3_3" function="internal">
        <lane id=":3/3_3_0" index="0" speed="13.90" length="3.18" shape="901.65,895.25 901.25,898.05 901.07,898.35"/>
    </edge>
    <edge id=":3/3_7" function="internal">