<additional xmlns:xsi="http://www.w3.org/2001/XMLSchema-instance" xsi:noNamespaceSchemaLocation="http://sumo.sf.net/xsd/additional_file.xsd">

{{#tls}}
    <tlLogic id="{{x}}/{{y}}" type="static" programID="off" offset="0"></tlLogic>
{{/tls}}

</additional>
