<?xml version="1.0" encoding="UTF-8"?>

<!-- generated on Sun Jan 11 14:16:09 2015 by SUMO netgenerate Version 0.21.0
<?xml version="1.0" encoding="UTF-8"?>

<configuration xmlns:xsi="http://www.w3.org/2001/XMLSchema-instance" xsi:noNamespaceSchemaLocation="http://sumo-sim.org/xsd/netgenerateConfiguration.xsd">

    <grid_network>
        <grid value="true"/>
        <grid.length value="300"/>
        <grid.x-number value="3"/>
        <grid.y-number value="2"/>
        <grid.attach-length value="1000"/>
    </grid_network>

    <output>
        <output-file value="simulation_grid/network.xml"/>
    </output>

    <processing>
        <no-turnarounds value="true"/>
    </processing>

    <building_defaults>
        <default-junction-type value="traffic_light"/>
    </building_defaults>

</configuration>
-->

<net version="0.13" xmlns:xsi="http://www.w3.org/2001/XMLSchema-instance" xsi:noNamespaceSchemaLocation="http://sumo-sim.org/xsd/net_file.xsd">

    <location netOffset="0.00,0.00" convBoundary="0.00,0.00,2600.00,2300.00" origBoundary="0.00,0.00,2600.00,2300.00" projParameter="!"/>

    <edge id=":0/0_0" function="internal">
        <lane id=":0/0_0_0" index="0" speed="13.90" length="5.00" shape="998.35,1004.75 998.16,1003.39 997.58,1002.43 996.61,1001.84 995.25,1001.65"/>
    </edge>
    <edge id=":0/0_1" function="internal">
        <lane id=":0/0_1_0" index="0" speed="13.90" length="9.50" shape="998.35,1004.75 998.35,995.25"/>
    </edge>
    <edge id=":0/0_2" function="internal">
        <lane id=":0/0_2_0" index="0" speed="13.90" length="3.18" shape="998.35,1004.75 998.75,1001.95 998.93,1001.65"/>
    </edge>
    <edge id=":0/0_12" function="internal">
        <lane id=":0/0_12_0" index="0" speed="13.90" length="7.14" shape="998.93,1001.65 999.95,999.95 1001.95,998.75 1004.75,998.35"/>
    </edge>
    <edge id=":0/0_3" function="internal">
        <lane id=":0/0_3_0" index="0" speed="13.90" length="5.00" shape="1004.75,1001.65 1003.39,1001.84 1002.43,1002.42 1001.84,1003.39 1001.65,1004.75"/>
    </edge>
    <edge id=":0/0_4" function="internal">
        <lane id=":0/0_4_0" index="0" speed="13.90" length="9.50" shape="1004.75,1001.65 995.25,1001.65"/>
    </edge>
    <edge id=":0/0_5" function="internal">
        <lane id=":0/0_5_0" index="0" speed="13.90" length="3.18" shape="1004.75,1001.65 1001.95,1001.25 1001.65,1001.07"/>
    </edge>
    <edge id=":0/0_13" function="internal">
        <lane id=":0/0_13_0" index="0" speed="13.90" length="7.14" shape="1001.65,1001.07 999.95,1000.05 998.75,998.05 998.35,995.25"/>
    </edge>
    <edge id=":0/0_6" function="internal">
        <lane id=":0/0_6_0" index="0" speed="13.90" length="5.00" shape="1001.65,995.25 1001.84,996.61 1002.42,997.57 1003.39,998.16 1004.75,998.35"/>
    </edge>
    <edge id=":0/0_7" function="internal">
        <lane id=":0/0_7_0" index="0" speed="13.90" length="9.50" shape="1001.65,995.25 1001.65,1004.75"/>
    </edge>
    <edge id=":0/0_8" function="internal">
        <lane id=":0/0_8_0" index="0" speed="13.90" length="3.18" shape="1001.65,995.25 1001.25,998.05 1001.07,998.35"/>
    </edge>
    <edge id=":0/0_14" function="internal">
        <lane id=":0/0_14_0" index="0" speed="13.90" length="7.14" shape="1001.07,998.35 1000.05,1000.05 998.05,1001.25 995.25,1001.65"/>
    </edge>
    <edge id=":0/0_9" function="internal">
        <lane id=":0/0_9_0" index="0" speed="13.90" length="5.00" shape="995.25,998.35 996.61,998.16 997.58,997.58 998.16,996.61 998.35,995.25"/>
    </edge>
    <edge id=":0/0_10" function="internal">
        <lane id=":0/0_10_0" index="0" speed="13.90" length="9.50" shape="995.25,998.35 1004.75,998.35"/>
    </edge>
    <edge id=":0/0_11" function="internal">
        <lane id=":0/0_11_0" index="0" speed="13.90" length="3.18" shape="995.25,998.35 998.05,998.75 998.35,998.93"/>
    </edge>
    <edge id=":0/0_15" function="internal">
        <lane id=":0/0_15_0" index="0" speed="13.90" length="7.14" shape="998.35,998.93 1000.05,999.95 1001.25,1001.95 1001.65,1004.75"/>
    </edge>
    <edge id=":0/1_0" function="internal">
        <lane id=":0/1_0_0" index="0" speed="13.90" length="5.00" shape="998.35,1304.75 998.16,1303.39 997.58,1302.43 996.61,1301.84 995.25,1301.65"/>
    </edge>
    <edge id=":0/1_1" function="internal">
        <lane id=":0/1_1_0" index="0" speed="13.90" length="9.50" shape="998.35,1304.75 998.35,1295.25"/>
    </edge>
    <edge id=":0/1_2" function="internal">
        <lane id=":0/1_2_0" index="0" speed="13.90" length="3.18" shape="998.35,1304.75 998.75,1301.95 998.93,1301.65"/>
    </edge>
    <edge id=":0/1_12" function="internal">
        <lane id=":0/1_12_0" index="0" speed="13.90" length="7.14" shape="998.93,1301.65 999.95,1299.95 1001.95,1298.75 1004.75,1298.35"/>
    </edge>
    <edge id=":0/1_3" function="internal">
        <lane id=":0/1_3_0" index="0" speed="13.90" length="5.00" shape="1004.75,1301.65 1003.39,1301.84 1002.43,1302.43 1001.84,1303.39 1001.65,1304.75"/>
    </edge>
    <edge id=":0/1_4" function="internal">
        <lane id=":0/1_4_0" index="0" speed="13.90" length="9.50" shape="1004.75,1301.65 995.25,1301.65"/>
    </edge>
    <edge id=":0/1_5" function="internal">
        <lane id=":0/1_5_0" index="0" speed="13.90" length="3.18" shape="1004.75,1301.65 1001.95,1301.25 1001.65,1301.07"/>
    </edge>
    <edge id=":0/1_13" function="internal">
        <lane id=":0/1_13_0" index="0" speed="13.90" length="7.14" shape="1001.65,1301.07 999.95,1300.05 998.75,1298.05 998.35,1295.25"/>
    </edge>
    <edge id=":0/1_6" function="internal">
        <lane id=":0/1_6_0" index="0" speed="13.90" length="5.00" shape="1001.65,1295.25 1001.84,1296.61 1002.42,1297.57 1003.39,1298.16 1004.75,1298.35"/>
    </edge>
    <edge id=":0/1_7" function="internal">
        <lane id=":0/1_7_0" index="0" speed="13.90" length="9.50" shape="1001.65,1295.25 1001.65,1304.75"/>
    </edge>
    <edge id=":0/1_8" function="internal">
        <lane id=":0/1_8_0" index="0" speed="13.90" length="3.18" shape="1001.65,1295.25 1001.25,1298.05 1001.07,1298.35"/>
    </edge>
    <edge id=":0/1_14" function="internal">
        <lane id=":0/1_14_0" index="0" speed="13.90" length="7.14" shape="1001.07,1298.35 1000.05,1300.05 998.05,1301.25 995.25,1301.65"/>
    </edge>
    <edge id=":0/1_9" function="internal">
        <lane id=":0/1_9_0" index="0" speed="13.90" length="5.00" shape="995.25,1298.35 996.61,1298.16 997.57,1297.57 998.16,1296.61 998.35,1295.25"/>
    </edge>
    <edge id=":0/1_10" function="internal">
        <lane id=":0/1_10_0" index="0" speed="13.90" length="9.50" shape="995.25,1298.35 1004.75,1298.35"/>
    </edge>
    <edge id=":0/1_11" function="internal">
        <lane id=":0/1_11_0" index="0" speed="13.90" length="3.18" shape="995.25,1298.35 998.05,1298.75 998.35,1298.93"/>
    </edge>
    <edge id=":0/1_15" function="internal">
        <lane id=":0/1_15_0" index="0" speed="13.90" length="7.14" shape="998.35,1298.93 1000.05,1299.95 1001.25,1301.95 1001.65,1304.75"/>
    </edge>
    <edge id=":1/0_0" function="internal">
        <lane id=":1/0_0_0" index="0" speed="13.90" length="5.00" shape="1298.35,1004.75 1298.16,1003.39 1297.57,1002.43 1296.61,1001.84 1295.25,1001.65"/>
    </edge>
    <edge id=":1/0_1" function="internal">
        <lane id=":1/0_1_0" index="0" speed="13.90" length="9.50" shape="1298.35,1004.75 1298.35,995.25"/>
    </edge>
    <edge id=":1/0_2" function="internal">
        <lane id=":1/0_2_0" index="0" speed="13.90" length="3.18" shape="1298.35,1004.75 1298.75,1001.95 1298.93,1001.65"/>
    </edge>
    <edge id=":1/0_12" function="internal">
        <lane id=":1/0_12_0" index="0" speed="13.90" length="7.14" shape="1298.93,1001.65 1299.95,999.95 1301.95,998.75 1304.75,998.35"/>
    </edge>
    <edge id=":1/0_3" function="internal">
        <lane id=":1/0_3_0" index="0" speed="13.90" length="5.00" shape="1304.75,1001.65 1303.39,1001.84 1302.43,1002.42 1301.84,1003.39 1301.65,1004.75"/>
    </edge>
    <edge id=":1/0_4" function="internal">
        <lane id=":1/0_4_0" index="0" speed="13.90" length="9.50" shape="1304.75,1001.65 1295.25,1001.65"/>
    </edge>
    <edge id=":1/0_5" function="internal">
        <lane id=":1/0_5_0" index="0" speed="13.90" length="3.18" shape="1304.75,1001.65 1301.95,1001.25 1301.65,1001.07"/>
    </edge>
    <edge id=":1/0_13" function="internal">
        <lane id=":1/0_13_0" index="0" speed="13.90" length="7.14" shape="1301.65,1001.07 1299.95,1000.05 1298.75,998.05 1298.35,995.25"/>
    </edge>
    <edge id=":1/0_6" function="internal">
        <lane id=":1/0_6_0" index="0" speed="13.90" length="5.00" shape="1301.65,995.25 1301.84,996.61 1302.43,997.57 1303.39,998.16 1304.75,998.35"/>
    </edge>
    <edge id=":1/0_7" function="internal">
        <lane id=":1/0_7_0" index="0" speed="13.90" length="9.50" shape="1301.65,995.25 1301.65,1004.75"/>
    </edge>
    <edge id=":1/0_8" function="internal">
        <lane id=":1/0_8_0" index="0" speed="13.90" length="3.18" shape="1301.65,995.25 1301.25,998.05 1301.07,998.35"/>
    </edge>
    <edge id=":1/0_14" function="internal">
        <lane id=":1/0_14_0" index="0" speed="13.90" length="7.14" shape="1301.07,998.35 1300.05,1000.05 1298.05,1001.25 1295.25,1001.65"/>
    </edge>
    <edge id=":1/0_9" function="internal">
        <lane id=":1/0_9_0" index="0" speed="13.90" length="5.00" shape="1295.25,998.35 1296.61,998.16 1297.57,997.58 1298.16,996.61 1298.35,995.25"/>
    </edge>
    <edge id=":1/0_10" function="internal">
        <lane id=":1/0_10_0" index="0" speed="13.90" length="9.50" shape="1295.25,998.35 1304.75,998.35"/>
    </edge>
    <edge id=":1/0_11" function="internal">
        <lane id=":1/0_11_0" index="0" speed="13.90" length="3.18" shape="1295.25,998.35 1298.05,998.75 1298.35,998.93"/>
    </edge>
    <edge id=":1/0_15" function="internal">
        <lane id=":1/0_15_0" index="0" speed="13.90" length="7.14" shape="1298.35,998.93 1300.05,999.95 1301.25,1001.95 1301.65,1004.75"/>
    </edge>
    <edge id=":1/1_0" function="internal">
        <lane id=":1/1_0_0" index="0" speed="13.90" length="5.00" shape="1298.35,1304.75 1298.16,1303.39 1297.57,1302.43 1296.61,1301.84 1295.25,1301.65"/>
    </edge>
    <edge id=":1/1_1" function="internal">
        <lane id=":1/1_1_0" index="0" speed="13.90" length="9.50" shape="1298.35,1304.75 1298.35,1295.25"/>
    </edge>
    <edge id=":1/1_2" function="internal">
        <lane id=":1/1_2_0" index="0" speed="13.90" length="3.18" shape="1298.35,1304.75 1298.75,1301.95 1298.93,1301.65"/>
    </edge>
    <edge id=":1/1_12" function="internal">
        <lane id=":1/1_12_0" index="0" speed="13.90" length="7.14" shape="1298.93,1301.65 1299.95,1299.95 1301.95,1298.75 1304.75,1298.35"/>
    </edge>
    <edge id=":1/1_3" function="internal">
        <lane id=":1/1_3_0" index="0" speed="13.90" length="5.00" shape="1304.75,1301.65 1303.39,1301.84 1302.43,1302.43 1301.84,1303.39 1301.65,1304.75"/>
    </edge>
    <edge id=":1/1_4" function="internal">
        <lane id=":1/1_4_0" index="0" speed="13.90" length="9.50" shape="1304.75,1301.65 1295.25,1301.65"/>
    </edge>
    <edge id=":1/1_5" function="internal">
        <lane id=":1/1_5_0" index="0" speed="13.90" length="3.18" shape="1304.75,1301.65 1301.95,1301.25 1301.65,1301.07"/>
    </edge>
    <edge id=":1/1_13" function="internal">
        <lane id=":1/1_13_0" index="0" speed="13.90" length="7.14" shape="1301.65,1301.07 1299.95,1300.05 1298.75,1298.05 1298.35,1295.25"/>
    </edge>
    <edge id=":1/1_6" function="internal">
        <lane id=":1/1_6_0" index="0" speed="13.90" length="5.00" shape="1301.65,1295.25 1301.84,1296.61 1302.43,1297.57 1303.39,1298.16 1304.75,1298.35"/>
    </edge>
    <edge id=":1/1_7" function="internal">
        <lane id=":1/1_7_0" index="0" speed="13.90" length="9.50" shape="1301.65,1295.25 1301.65,1304.75"/>
    </edge>
    <edge id=":1/1_8" function="internal">
        <lane id=":1/1_8_0" index="0" speed="13.90" length="3.18" shape="1301.65,1295.25 1301.25,1298.05 1301.07,1298.35"/>
    </edge>
    <edge id=":1/1_14" function="internal">
        <lane id=":1/1_14_0" index="0" speed="13.90" length="7.14" shape="1301.07,1298.35 1300.05,1300.05 1298.05,1301.25 1295.25,1301.65"/>
    </edge>
    <edge id=":1/1_9" function="internal">
        <lane id=":1/1_9_0" index="0" speed="13.90" length="5.00" shape="1295.25,1298.35 1296.61,1298.16 1297.57,1297.57 1298.16,1296.61 1298.35,1295.25"/>
    </edge>
    <edge id=":1/1_10" function="internal">
        <lane id=":1/1_10_0" index="0" speed="13.90" length="9.50" shape="1295.25,1298.35 1304.75,1298.35"/>
    </edge>
    <edge id=":1/1_11" function="internal">
        <lane id=":1/1_11_0" index="0" speed="13.90" length="3.18" shape="1295.25,1298.35 1298.05,1298.75 1298.35,1298.93"/>
    </edge>
    <edge id=":1/1_15" function="internal">
        <lane id=":1/1_15_0" index="0" speed="13.90" length="7.14" shape="1298.35,1298.93 1300.05,1299.95 1301.25,1301.95 1301.65,1304.75"/>
    </edge>
    <edge id=":2/0_0" function="internal">
        <lane id=":2/0_0_0" index="0" speed="13.90" length="5.00" shape="1598.35,1004.75 1598.16,1003.39 1597.57,1002.43 1596.61,1001.84 1595.25,1001.65"/>
    </edge>
    <edge id=":2/0_1" function="internal">
        <lane id=":2/0_1_0" index="0" speed="13.90" length="9.50" shape="1598.35,1004.75 1598.35,995.25"/>
    </edge>
    <edge id=":2/0_2" function="internal">
        <lane id=":2/0_2_0" index="0" speed="13.90" length="3.18" shape="1598.35,1004.75 1598.75,1001.95 1598.93,1001.65"/>
    </edge>
    <edge id=":2/0_12" function="internal">
        <lane id=":2/0_12_0" index="0" speed="13.90" length="7.14" shape="1598.93,1001.65 1599.95,999.95 1601.95,998.75 1604.75,998.35"/>
    </edge>
    <edge id=":2/0_3" function="internal">
        <lane id=":2/0_3_0" index="0" speed="13.90" length="5.00" shape="1604.75,1001.65 1603.39,1001.84 1602.43,1002.42 1601.84,1003.39 1601.65,1004.75"/>
    </edge>
    <edge id=":2/0_4" function="internal">
        <lane id=":2/0_4_0" index="0" speed="13.90" length="9.50" shape="1604.75,1001.65 1595.25,1001.65"/>
    </edge>
    <edge id=":2/0_5" function="internal">
        <lane id=":2/0_5_0" index="0" speed="13.90" length="3.18" shape="1604.75,1001.65 1601.95,1001.25 1601.65,1001.07"/>
    </edge>
    <edge id=":2/0_13" function="internal">
        <lane id=":2/0_13_0" index="0" speed="13.90" length="7.14" shape="1601.65,1001.07 1599.95,1000.05 1598.75,998.05 1598.35,995.25"/>
    </edge>
    <edge id=":2/0_6" function="internal">
        <lane id=":2/0_6_0" index="0" speed="13.90" length="5.00" shape="1601.65,995.25 1601.84,996.61 1602.43,997.58 1603.39,998.16 1604.75,998.35"/>
    </edge>
    <edge id=":2/0_7" function="internal">
        <lane id=":2/0_7_0" index="0" speed="13.90" length="9.50" shape="1601.65,995.25 1601.65,1004.75"/>
    </edge>
    <edge id=":2/0_8" function="internal">
        <lane id=":2/0_8_0" index="0" speed="13.90" length="3.18" shape="1601.65,995.25 1601.25,998.05 1601.07,998.35"/>
    </edge>
    <edge id=":2/0_14" function="internal">
        <lane id=":2/0_14_0" index="0" speed="13.90" length="7.14" shape="1601.07,998.35 1600.05,1000.05 1598.05,1001.25 1595.25,1001.65"/>
    </edge>
    <edge id=":2/0_9" function="internal">
        <lane id=":2/0_9_0" index="0" speed="13.90" length="5.00" shape="1595.25,998.35 1596.61,998.16 1597.57,997.58 1598.16,996.61 1598.35,995.25"/>
    </edge>
    <edge id=":2/0_10" function="internal">
        <lane id=":2/0_10_0" index="0" speed="13.90" length="9.50" shape="1595.25,998.35 1604.75,998.35"/>
    </edge>
    <edge id=":2/0_11" function="internal">
        <lane id=":2/0_11_0" index="0" speed="13.90" length="3.18" shape="1595.25,998.35 1598.05,998.75 1598.35,998.93"/>
    </edge>
    <edge id=":2/0_15" function="internal">
        <lane id=":2/0_15_0" index="0" speed="13.90" length="7.14" shape="1598.35,998.93 1600.05,999.95 1601.25,1001.95 1601.65,1004.75"/>
    </edge>
    <edge id=":2/1_0" function="internal">
        <lane id=":2/1_0_0" index="0" speed="13.90" length="5.00" shape="1598.35,1304.75 1598.16,1303.39 1597.57,1302.43 1596.61,1301.84 1595.25,1301.65"/>
    </edge>
    <edge id=":2/1_1" function="internal">
        <lane id=":2/1_1_0" index="0" speed="13.90" length="9.50" shape="1598.35,1304.75 1598.35,1295.25"/>
    </edge>
    <edge id=":2/1_2" function="internal">
        <lane id=":2/1_2_0" index="0" speed="13.90" length="3.18" shape="1598.35,1304.75 1598.75,1301.95 1598.93,1301.65"/>
    </edge>
    <edge id=":2/1_12" function="internal">
        <lane id=":2/1_12_0" index="0" speed="13.90" length="7.14" shape="1598.93,1301.65 1599.95,1299.95 1601.95,1298.75 1604.75,1298.35"/>
    </edge>
    <edge id=":2/1_3" function="internal">
        <lane id=":2/1_3_0" index="0" speed="13.90" length="5.00" shape="1604.75,1301.65 1603.39,1301.84 1602.43,1302.43 1601.84,1303.39 1601.65,1304.75"/>
    </edge>
    <edge id=":2/1_4" function="internal">
        <lane id=":2/1_4_0" index="0" speed="13.90" length="9.50" shape="1604.75,1301.65 1595.25,1301.65"/>
    </edge>
    <edge id=":2/1_5" function="internal">
        <lane id=":2/1_5_0" index="0" speed="13.90" length="3.18" shape="1604.75,1301.65 1601.95,1301.25 1601.65,1301.07"/>
    </edge>
    <edge id=":2/1_13" function="internal">
        <lane id=":2/1_13_0" index="0" speed="13.90" length="7.14" shape="1601.65,1301.07 1599.95,1300.05 1598.75,1298.05 1598.35,1295.25"/>
    </edge>
    <edge id=":2/1_6" function="internal">
        <lane id=":2/1_6_0" index="0" speed="13.90" length="5.00" shape="1601.65,1295.25 1601.84,1296.61 1602.43,1297.57 1603.39,1298.16 1604.75,1298.35"/>
    </edge>
    <edge id=":2/1_7" function="internal">
        <lane id=":2/1_7_0" index="0" speed="13.90" length="9.50" shape="1601.65,1295.25 1601.65,1304.75"/>
    </edge>
    <edge id=":2/1_8" function="internal">
        <lane id=":2/1_8_0" index="0" speed="13.90" length="3.18" shape="1601.65,1295.25 1601.25,1298.05 1601.07,1298.35"/>
    </edge>
    <edge id=":2/1_14" function="internal">
        <lane id=":2/1_14_0" index="0" speed="13.90" length="7.14" shape="1601.07,1298.35 1600.05,1300.05 1598.05,1301.25 1595.25,1301.65"/>
    </edge>
    <edge id=":2/1_9" function="internal">
        <lane id=":2/1_9_0" index="0" speed="13.90" length="5.00" shape="1595.25,1298.35 1596.61,1298.16 1597.57,1297.57 1598.16,1296.61 1598.35,1295.25"/>
    </edge>
    <edge id=":2/1_10" function="internal">
        <lane id=":2/1_10_0" index="0" speed="13.90" length="9.50" shape="1595.25,1298.35 1604.75,1298.35"/>
    </edge>
    <edge id=":2/1_11" function="internal">
        <lane id=":2/1_11_0" index="0" speed="13.90" length="3.18" shape="1595.25,1298.35 1598.05,1298.75 1598.35,1298.93"/>
    </edge>
    <edge id=":2/1_15" function="internal">
        <lane id=":2/1_15_0" index="0" speed="13.90" length="7.14" shape="1598.35,1298.93 1600.05,1299.95 1601.25,1301.95 1601.65,1304.75"/>
    </edge>

    <edge id="0/0to0/1" from="0/0" to="0/1" priority="-1">
        <lane id="0/0to0/1_0" index="0" speed="13.90" length="290.50" shape="1001.65,1004.75 1001.65,1295.25"/>
    </edge>
    <edge id="0/0to1/0" from="0/0" to="1/0" priority="-1">
        <lane id="0/0to1/0_0" index="0" speed="13.90" length="290.50" shape="1004.75,998.35 1295.25,998.35"/>
    </edge>
    <edge id="0/0tobottom0" from="0/0" to="bottom0" priority="-1">
        <lane id="0/0tobottom0_0" index="0" speed="13.90" length="995.25" shape="998.35,995.25 998.35,0.00"/>
    </edge>
    <edge id="0/0toleft0" from="0/0" to="left0" priority="-1">
        <lane id="0/0toleft0_0" index="0" speed="13.90" length="995.25" shape="995.25,1001.65 0.00,1001.65"/>
    </edge>
    <edge id="0/1to0/0" from="0/1" to="0/0" priority="-1">
        <lane id="0/1to0/0_0" index="0" speed="13.90" length="290.50" shape="998.35,1295.25 998.35,1004.75"/>
    </edge>
    <edge id="0/1to1/1" from="0/1" to="1/1" priority="-1">
        <lane id="0/1to1/1_0" index="0" speed="13.90" length="290.50" shape="1004.75,1298.35 1295.25,1298.35"/>
    </edge>
    <edge id="0/1toleft1" from="0/1" to="left1" priority="-1">
        <lane id="0/1toleft1_0" index="0" speed="13.90" length="995.25" shape="995.25,1301.65 0.00,1301.65"/>
    </edge>
    <edge id="0/1totop0" from="0/1" to="top0" priority="-1">
        <lane id="0/1totop0_0" index="0" speed="13.90" length="995.25" shape="1001.65,1304.75 1001.65,2300.00"/>
    </edge>
    <edge id="1/0to0/0" from="1/0" to="0/0" priority="-1">
        <lane id="1/0to0/0_0" index="0" speed="13.90" length="290.50" shape="1295.25,1001.65 1004.75,1001.65"/>
    </edge>
    <edge id="1/0to1/1" from="1/0" to="1/1" priority="-1">
        <lane id="1/0to1/1_0" index="0" speed="13.90" length="290.50" shape="1301.65,1004.75 1301.65,1295.25"/>
    </edge>
    <edge id="1/0to2/0" from="1/0" to="2/0" priority="-1">
        <lane id="1/0to2/0_0" index="0" speed="13.90" length="290.50" shape="1304.75,998.35 1595.25,998.35"/>
    </edge>
    <edge id="1/0tobottom1" from="1/0" to="bottom1" priority="-1">
        <lane id="1/0tobottom1_0" index="0" speed="13.90" length="995.25" shape="1298.35,995.25 1298.35,0.00"/>
    </edge>
    <edge id="1/1to0/1" from="1/1" to="0/1" priority="-1">
        <lane id="1/1to0/1_0" index="0" speed="13.90" length="290.50" shape="1295.25,1301.65 1004.75,1301.65"/>
    </edge>
    <edge id="1/1to1/0" from="1/1" to="1/0" priority="-1">
        <lane id="1/1to1/0_0" index="0" speed="13.90" length="290.50" shape="1298.35,1295.25 1298.35,1004.75"/>
    </edge>
    <edge id="1/1to2/1" from="1/1" to="2/1" priority="-1">
        <lane id="1/1to2/1_0" index="0" speed="13.90" length="290.50" shape="1304.75,1298.35 1595.25,1298.35"/>
    </edge>
    <edge id="1/1totop1" from="1/1" to="top1" priority="-1">
        <lane id="1/1totop1_0" index="0" speed="13.90" length="995.25" shape="1301.65,1304.75 1301.65,2300.00"/>
    </edge>
    <edge id="2/0to1/0" from="2/0" to="1/0" priority="-1">
        <lane id="2/0to1/0_0" index="0" speed="13.90" length="290.50" shape="1595.25,1001.65 1304.75,1001.65"/>
    </edge>
    <edge id="2/0to2/1" from="2/0" to="2/1" priority="-1">
        <lane id="2/0to2/1_0" index="0" speed="13.90" length="290.50" shape="1601.65,1004.75 1601.65,1295.25"/>
    </edge>
    <edge id="2/0tobottom2" from="2/0" to="bottom2" priority="-1">
        <lane id="2/0tobottom2_0" index="0" speed="13.90" length="995.25" shape="1598.35,995.25 1598.35,0.00"/>
    </edge>
    <edge id="2/0toright0" from="2/0" to="right0" priority="-1">
        <lane id="2/0toright0_0" index="0" speed="13.90" length="995.25" shape="1604.75,998.35 2600.00,998.35"/>
    </edge>
    <edge id="2/1to1/1" from="2/1" to="1/1" priority="-1">
        <lane id="2/1to1/1_0" index="0" speed="13.90" length="290.50" shape="1595.25,1301.65 1304.75,1301.65"/>
    </edge>
    <edge id="2/1to2/0" from="2/1" to="2/0" priority="-1">
        <lane id="2/1to2/0_0" index="0" speed="13.90" length="290.50" shape="1598.35,1295.25 1598.35,1004.75"/>
    </edge>
    <edge id="2/1toright1" from="2/1" to="right1" priority="-1">
        <lane id="2/1toright1_0" index="0" speed="13.90" length="995.25" shape="1604.75,1298.35 2600.00,1298.35"/>
    </edge>
    <edge id="2/1totop2" from="2/1" to="top2" priority="-1">
        <lane id="2/1totop2_0" index="0" speed="13.90" length="995.25" shape="1601.65,1304.75 1601.65,2300.00"/>
    </edge>
    <edge id="bottom0to0/0" from="bottom0" to="0/0" priority="-1">
        <lane id="bottom0to0/0_0" index="0" speed="13.90" length="995.25" shape="1001.65,0.00 1001.65,995.25"/>
    </edge>
    <edge id="bottom1to1/0" from="bottom1" to="1/0" priority="-1">
        <lane id="bottom1to1/0_0" index="0" speed="13.90" length="995.25" shape="1301.65,0.00 1301.65,995.25"/>
    </edge>
    <edge id="bottom2to2/0" from="bottom2" to="2/0" priority="-1">
        <lane id="bottom2to2/0_0" index="0" speed="13.90" length="995.25" shape="1601.65,0.00 1601.65,995.25"/>
    </edge>
    <edge id="left0to0/0" from="left0" to="0/0" priority="-1">
        <lane id="left0to0/0_0" index="0" speed="13.90" length="995.25" shape="0.00,998.35 995.25,998.35"/>
    </edge>
    <edge id="left1to0/1" from="left1" to="0/1" priority="-1">
        <lane id="left1to0/1_0" index="0" speed="13.90" length="995.25" shape="0.00,1298.35 995.25,1298.35"/>
    </edge>
    <edge id="right0to2/0" from="right0" to="2/0" priority="-1">
        <lane id="right0to2/0_0" index="0" speed="13.90" length="995.25" shape="2600.00,1001.65 1604.75,1001.65"/>
    </edge>
    <edge id="right1to2/1" from="right1" to="2/1" priority="-1">
        <lane id="right1to2/1_0" index="0" speed="13.90" length="995.25" shape="2600.00,1301.65 1604.75,1301.65"/>
    </edge>
    <edge id="top0to0/1" from="top0" to="0/1" priority="-1">
        <lane id="top0to0/1_0" index="0" speed="13.90" length="995.25" shape="998.35,2300.00 998.35,1304.75"/>
    </edge>
    <edge id="top1to1/1" from="top1" to="1/1" priority="-1">
        <lane id="top1to1/1_0" index="0" speed="13.90" length="995.25" shape="1298.35,2300.00 1298.35,1304.75"/>
    </edge>
    <edge id="top2to2/1" from="top2" to="2/1" priority="-1">
        <lane id="top2to2/1_0" index="0" speed="13.90" length="995.25" shape="1598.35,2300.00 1598.35,1304.75"/>
    </edge>

    <tlLogic id="0/0" type="static" programID="0" offset="0">
        <phase duration="31" state="rrrGGgrrrGGg"/>
        <phase duration="4" state="rrryygrrryyg"/>
        <phase duration="6" state="rrrrrGrrrrrG"/>
        <phase duration="4" state="rrrrryrrrrry"/>
        <phase duration="31" state="GGgrrrGGgrrr"/>
        <phase duration="4" state="yygrrryygrrr"/>
        <phase duration="6" state="rrGrrrrrGrrr"/>
        <phase duration="4" state="rryrrrrryrrr"/>
    </tlLogic>
    <tlLogic id="0/1" type="static" programID="0" offset="0">
        <phase duration="31" state="GGgrrrGGgrrr"/>
        <phase duration="4" state="yygrrryygrrr"/>
        <phase duration="6" state="rrGrrrrrGrrr"/>
        <phase duration="4" state="rryrrrrryrrr"/>
        <phase duration="31" state="rrrGGgrrrGGg"/>
        <phase duration="4" state="rrryygrrryyg"/>
        <phase duration="6" state="rrrrrGrrrrrG"/>
        <phase duration="4" state="rrrrryrrrrry"/>
    </tlLogic>
    <tlLogic id="1/0" type="static" programID="0" offset="0">
        <phase duration="31" state="GGgrrrGGgrrr"/>
        <phase duration="4" state="yygrrryygrrr"/>
        <phase duration="6" state="rrGrrrrrGrrr"/>
        <phase duration="4" state="rryrrrrryrrr"/>
        <phase duration="31" state="rrrGGgrrrGGg"/>
        <phase duration="4" state="rrryygrrryyg"/>
        <phase duration="6" state="rrrrrGrrrrrG"/>
        <phase duration="4" state="rrrrryrrrrry"/>
    </tlLogic>
    <tlLogic id="1/1" type="static" programID="0" offset="0">
        <phase duration="31" state="GGgrrrGGgrrr"/>
        <phase duration="4" state="yygrrryygrrr"/>
        <phase duration="6" state="rrGrrrrrGrrr"/>
        <phase duration="4" state="rryrrrrryrrr"/>
        <phase duration="31" state="rrrGGgrrrGGg"/>
        <phase duration="4" state="rrryygrrryyg"/>
        <phase duration="6" state="rrrrrGrrrrrG"/>
        <phase duration="4" state="rrrrryrrrrry"/>
    </tlLogic>
    <tlLogic id="2/0" type="static" programID="0" offset="0">
        <phase duration="31" state="rrrGGgrrrGGg"/>
        <phase duration="4" state="rrryygrrryyg"/>
        <phase duration="6" state="rrrrrGrrrrrG"/>
        <phase duration="4" state="rrrrryrrrrry"/>
        <phase duration="31" state="GGgrrrGGgrrr"/>
        <phase duration="4" state="yygrrryygrrr"/>
        <phase duration="6" state="rrGrrrrrGrrr"/>
        <phase duration="4" state="rryrrrrryrrr"/>
    </tlLogic>
    <tlLogic id="2/1" type="static" programID="0" offset="0">
        <phase duration="31" state="GGgrrrGGgrrr"/>
        <phase duration="4" state="yygrrryygrrr"/>
        <phase duration="6" state="rrGrrrrrGrrr"/>
        <phase duration="4" state="rryrrrrryrrr"/>
        <phase duration="31" state="rrrGGgrrrGGg"/>
        <phase duration="4" state="rrryygrrryyg"/>
        <phase duration="6" state="rrrrrGrrrrrG"/>
        <phase duration="4" state="rrrrryrrrrry"/>
    </tlLogic>

    <junction id="0/0" type="traffic_light" x="1000.00" y="1000.00" incLanes="0/1to0/0_0 1/0to0/0_0 bottom0to0/0_0 left0to0/0_0" intLanes=":0/0_0_0 :0/0_1_0 :0/0_12_0 :0/0_3_0 :0/0_4_0 :0/0_13_0 :0/0_6_0 :0/0_7_0 :0/0_14_0 :0/0_9_0 :0/0_10_0 :0/0_15_0" shape="996.75,1004.75 1003.25,1004.75 1004.75,1003.25 1004.75,996.75 1003.25,995.25 996.75,995.25 995.25,996.75 995.25,1003.25">
        <request index="0" response="000000000000" foes="000100010000" cont="0"/>
        <request index="1" response="000000000000" foes="111100110000" cont="0"/>
        <request index="2" response="000011000000" foes="110011110000" cont="1"/>
        <request index="3" response="000010000000" foes="100010000000" cont="0"/>
        <request index="4" response="000110000111" foes="100110000111" cont="0"/>
        <request index="5" response="011110000110" foes="011110000110" cont="1"/>
        <request index="6" response="000000000000" foes="010000000100" cont="0"/>
        <request index="7" response="000000000000" foes="110000111100" cont="0"/>
        <request index="8" response="000000000011" foes="110000110011" cont="1"/>
        <request index="9" response="000000000010" foes="000000100010" cont="0"/>
        <request index="10" response="000111000110" foes="000111100110" cont="0"/>
        <request index="11" response="000110011110" foes="000110011110" cont="1"/>
    </junction>
    <junction id="0/1" type="traffic_light" x="1000.00" y="1300.00" incLanes="top0to0/1_0 1/1to0/1_0 0/0to0/1_0 left1to0/1_0" intLanes=":0/1_0_0 :0/1_1_0 :0/1_12_0 :0/1_3_0 :0/1_4_0 :0/1_13_0 :0/1_6_0 :0/1_7_0 :0/1_14_0 :0/1_9_0 :0/1_10_0 :0/1_15_0" shape="996.75,1304.75 1003.25,1304.75 1004.75,1303.25 1004.75,1296.75 1003.25,1295.25 996.75,1295.25 995.25,1296.75 995.25,1303.25">